# Makefile.in generated by automake 1.16.4 from Makefile.am.
# @configure_input@

# Copyright (C) 1994-2021 Free Software Foundation, Inc.

# This Makefile.in is free software; the Free Software Foundation
# gives unlimited permission to copy and/or distribute it,
# with or without modifications, as long as this notice is preserved.

# This program is distributed in the hope that it will be useful,
# but WITHOUT ANY WARRANTY, to the extent permitted by law; without
# even the implied warranty of MERCHANTABILITY or FITNESS FOR A
# PARTICULAR PURPOSE.

@SET_MAKE@

################################################################################
#
# \file Makefile.am
# \brief Makefile for the SU2 common library
# \author M. Colonno, T. Economon, F. Palacios
# \version 7.3.0 "Blackbird"
#
# SU2 Project Website: https://su2code.github.io
# 
# The SU2 Project is maintained by the SU2 Foundation 
# (http://su2foundation.org)
#
# Copyright 2012-2022, SU2 Contributors (cf. AUTHORS.md)
#
# SU2 is free software; you can redistribute it and/or
# modify it under the terms of the GNU Lesser General Public
# License as published by the Free Software Foundation; either
# version 2.1 of the License, or (at your option) any later version.
# 
# SU2 is distributed in the hope that it will be useful,
# but WITHOUT ANY WARRANTY; without even the implied warranty of
# MERCHANTABILITY or FITNESS FOR A PARTICULAR PURPOSE. See the GNU
# Lesser General Public License for more details.
#
# You should have received a copy of the GNU Lesser General Public
# License along with SU2. If not, see <http://www.gnu.org/licenses/>.
#
################################################################################

VPATH = @srcdir@
am__is_gnu_make = { \
  if test -z '$(MAKELEVEL)'; then \
    false; \
  elif test -n '$(MAKE_HOST)'; then \
    true; \
  elif test -n '$(MAKE_VERSION)' && test -n '$(CURDIR)'; then \
    true; \
  else \
    false; \
  fi; \
}
am__make_running_with_option = \
  case $${target_option-} in \
      ?) ;; \
      *) echo "am__make_running_with_option: internal error: invalid" \
              "target option '$${target_option-}' specified" >&2; \
         exit 1;; \
  esac; \
  has_opt=no; \
  sane_makeflags=$$MAKEFLAGS; \
  if $(am__is_gnu_make); then \
    sane_makeflags=$$MFLAGS; \
  else \
    case $$MAKEFLAGS in \
      *\\[\ \	]*) \
        bs=\\; \
        sane_makeflags=`printf '%s\n' "$$MAKEFLAGS" \
          | sed "s/$$bs$$bs[$$bs $$bs	]*//g"`;; \
    esac; \
  fi; \
  skip_next=no; \
  strip_trailopt () \
  { \
    flg=`printf '%s\n' "$$flg" | sed "s/$$1.*$$//"`; \
  }; \
  for flg in $$sane_makeflags; do \
    test $$skip_next = yes && { skip_next=no; continue; }; \
    case $$flg in \
      *=*|--*) continue;; \
        -*I) strip_trailopt 'I'; skip_next=yes;; \
      -*I?*) strip_trailopt 'I';; \
        -*O) strip_trailopt 'O'; skip_next=yes;; \
      -*O?*) strip_trailopt 'O';; \
        -*l) strip_trailopt 'l'; skip_next=yes;; \
      -*l?*) strip_trailopt 'l';; \
      -[dEDm]) skip_next=yes;; \
      -[JT]) skip_next=yes;; \
    esac; \
    case $$flg in \
      *$$target_option*) has_opt=yes; break;; \
    esac; \
  done; \
  test $$has_opt = yes
am__make_dryrun = (target_option=n; $(am__make_running_with_option))
am__make_keepgoing = (target_option=k; $(am__make_running_with_option))
pkgdatadir = $(datadir)/@PACKAGE@
pkgincludedir = $(includedir)/@PACKAGE@
pkglibdir = $(libdir)/@PACKAGE@
pkglibexecdir = $(libexecdir)/@PACKAGE@
am__cd = CDPATH="$${ZSH_VERSION+.}$(PATH_SEPARATOR)" && cd
install_sh_DATA = $(install_sh) -c -m 644
install_sh_PROGRAM = $(install_sh) -c
install_sh_SCRIPT = $(install_sh) -c
INSTALL_HEADER = $(INSTALL_DATA)
transform = $(program_transform_name)
NORMAL_INSTALL = :
PRE_INSTALL = :
POST_INSTALL = :
NORMAL_UNINSTALL = :
PRE_UNINSTALL = :
POST_UNINSTALL = :
build_triplet = @build@
host_triplet = @host@
target_triplet = @target@
@BUILD_NORMAL_TRUE@am__append_1 = libSU2.a
@BUILD_DIRECTDIFF_TRUE@am__append_2 = libSU2_DIRECTDIFF.a
@BUILD_REVERSE_TRUE@am__append_3 = libSU2_AD.a
subdir = Common/lib
ACLOCAL_M4 = $(top_srcdir)/aclocal.m4
am__aclocal_m4_deps = $(top_srcdir)/m4/cgns.m4 \
	$(top_srcdir)/m4/codi.m4 $(top_srcdir)/m4/compiler.m4 \
	$(top_srcdir)/m4/metis.m4 $(top_srcdir)/m4/parmetis.m4 \
	$(top_srcdir)/m4/tecio.m4 $(top_srcdir)/configure.ac
am__configure_deps = $(am__aclocal_m4_deps) $(CONFIGURE_DEPENDENCIES) \
	$(ACLOCAL_M4)
DIST_COMMON = $(srcdir)/Makefile.am $(am__DIST_COMMON)
mkinstalldirs = $(install_sh) -d
CONFIG_CLEAN_FILES =
CONFIG_CLEAN_VPATH_FILES =
LIBRARIES = $(noinst_LIBRARIES)
AR = ar
ARFLAGS = cru
AM_V_AR = $(am__v_AR_@AM_V@)
am__v_AR_ = $(am__v_AR_@AM_DEFAULT_V@)
am__v_AR_0 = @echo "  AR      " $@;
am__v_AR_1 = 
libSU2_a_AR = $(AR) $(ARFLAGS)
am__DEPENDENCIES_1 =
@BUILD_NORMAL_TRUE@libSU2_a_DEPENDENCIES = $(am__DEPENDENCIES_1)
am__libSU2_a_SOURCES_DIST = ../src/fem/fem_cgns_elements.cpp \
	../src/CConfig.cpp ../src/linear_algebra/blas_structure.cpp \
	../src/fem/fem_geometry_structure.cpp \
	../src/fem/fem_integration_rules.cpp \
	../src/fem/fem_standard_element.cpp \
	../src/fem/fem_wall_distance.cpp \
	../src/fem/fem_work_estimate_metis.cpp \
	../src/fem/geometry_structure_fem_part.cpp \
	../src/graph_coloring_structure.cpp \
	../src/grid_movement/CGridMovement.cpp \
	../src/grid_movement/CFreeFormBlending.cpp \
	../src/grid_movement/CBSplineBlending.cpp \
	../src/grid_movement/CBezierBlending.cpp \
	../src/grid_movement/CFreeFormDefBox.cpp \
	../src/grid_movement/CVolumetricMovement.cpp \
	../src/grid_movement/CSurfaceMovement.cpp \
	../include/parallelization/mpi_structure.cpp \
	../include/parallelization/omp_structure.cpp \
	../src/basic_types/ad_structure.cpp \
	../src/fem/fem_gauss_jacobi_quadrature.cpp \
	../src/geometry/CGeometry.cpp \
	../src/geometry/CPhysicalGeometry.cpp \
	../src/geometry/CMultiGridGeometry.cpp \
	../src/geometry/CMultiGridQueue.cpp \
	../src/geometry/CDummyGeometry.cpp \
	../src/geometry/elements/CElement.cpp \
	../src/geometry/elements/CTRIA1.cpp \
	../src/geometry/elements/CQUAD4.cpp \
	../src/geometry/elements/CTETRA1.cpp \
	../src/geometry/elements/CPYRAM5.cpp \
	../src/geometry/elements/CPRISM6.cpp \
	../src/geometry/elements/CHEXA8.cpp \
	../src/geometry/meshreader/CMeshReaderFVM.cpp \
	../src/geometry/meshreader/CSU2ASCIIMeshReaderFVM.cpp \
	../src/geometry/meshreader/CCGNSMeshReaderFVM.cpp \
	../src/geometry/meshreader/CRectangularMeshReaderFVM.cpp \
	../src/geometry/meshreader/CBoxMeshReaderFVM.cpp \
	../src/geometry/dual_grid/CDualGrid.cpp \
	../src/geometry/dual_grid/CEdge.cpp \
	../src/geometry/dual_grid/CPoint.cpp \
	../src/geometry/dual_grid/CVertex.cpp \
	../src/geometry/dual_grid/CTurboVertex.cpp \
	../src/geometry/primal_grid/CPrimalGrid.cpp \
	../src/geometry/primal_grid/CPrimalGridFEM.cpp \
	../src/geometry/primal_grid/CPrimalGridBoundFEM.cpp \
	../src/geometry/primal_grid/CLine.cpp \
	../src/geometry/primal_grid/CTriangle.cpp \
	../src/geometry/primal_grid/CPrism.cpp \
	../src/geometry/primal_grid/CPyramid.cpp \
	../src/geometry/primal_grid/CHexahedron.cpp \
	../src/geometry/primal_grid/CTetrahedron.cpp \
	../src/geometry/primal_grid/CQuadrilateral.cpp \
	../src/geometry/primal_grid/CVertexMPI.cpp \
	../src/interface_interpolation/CInterpolatorFactory.cpp \
	../src/interface_interpolation/CInterpolator.cpp \
	../src/interface_interpolation/CMirror.cpp \
	../src/interface_interpolation/CSlidingMesh.cpp \
	../src/interface_interpolation/CIsoparametric.cpp \
	../src/interface_interpolation/CNearestNeighbor.cpp \
	../src/interface_interpolation/CRadialBasisFunction.cpp \
	../src/adt/CADTBaseClass.cpp \
	../src/adt/CADTPointsOnlyClass.cpp \
	../src/adt/CADTElemClass.cpp ../src/wall_model.cpp \
	../src/toolboxes/printing_toolbox.cpp \
	../src/toolboxes/CLinearPartitioner.cpp \
	../src/toolboxes/C1DInterpolation.cpp \
	../src/toolboxes/CSymmetricMatrix.cpp \
	../src/toolboxes/CSquareMatrixCM.cpp \
	../src/toolboxes/MMS/CVerificationSolution.cpp \
	../src/toolboxes/MMS/CIncTGVSolution.cpp \
	../src/toolboxes/MMS/CInviscidVortexSolution.cpp \
	../src/toolboxes/MMS/CMMSIncEulerSolution.cpp \
	../src/toolboxes/MMS/CMMSIncNSSolution.cpp \
	../src/toolboxes/MMS/CMMSNSTwoHalfCirclesSolution.cpp \
	../src/toolboxes/MMS/CMMSNSTwoHalfSpheresSolution.cpp \
	../src/toolboxes/MMS/CMMSNSUnitQuadSolution.cpp \
	../src/toolboxes/MMS/CMMSNSUnitQuadSolutionWallBC.cpp \
	../src/toolboxes/MMS/CNSUnitQuadSolution.cpp \
	../src/toolboxes/MMS/CRinglebSolution.cpp \
	../src/toolboxes/MMS/CTGVSolution.cpp \
	../src/toolboxes/MMS/CUserDefinedSolution.cpp \
	../src/linear_algebra/CSysVector.cpp \
	../src/linear_algebra/CSysMatrix.cpp \
	../src/linear_algebra/CSysSolve.cpp \
	../src/linear_algebra/CSysSolve_b.cpp \
	../src/linear_algebra/CPastixWrapper.cpp
am__dirstamp = $(am__leading_dot)dirstamp
am__objects_1 = ../src/fem/libSU2_a-fem_cgns_elements.$(OBJEXT) \
	../src/libSU2_a-CConfig.$(OBJEXT) \
	../src/linear_algebra/libSU2_a-blas_structure.$(OBJEXT) \
	../src/fem/libSU2_a-fem_geometry_structure.$(OBJEXT) \
	../src/fem/libSU2_a-fem_integration_rules.$(OBJEXT) \
	../src/fem/libSU2_a-fem_standard_element.$(OBJEXT) \
	../src/fem/libSU2_a-fem_wall_distance.$(OBJEXT) \
	../src/fem/libSU2_a-fem_work_estimate_metis.$(OBJEXT) \
	../src/fem/libSU2_a-geometry_structure_fem_part.$(OBJEXT) \
	../src/libSU2_a-graph_coloring_structure.$(OBJEXT) \
	../src/grid_movement/libSU2_a-CGridMovement.$(OBJEXT) \
	../src/grid_movement/libSU2_a-CFreeFormBlending.$(OBJEXT) \
	../src/grid_movement/libSU2_a-CBSplineBlending.$(OBJEXT) \
	../src/grid_movement/libSU2_a-CBezierBlending.$(OBJEXT) \
	../src/grid_movement/libSU2_a-CFreeFormDefBox.$(OBJEXT) \
	../src/grid_movement/libSU2_a-CVolumetricMovement.$(OBJEXT) \
	../src/grid_movement/libSU2_a-CSurfaceMovement.$(OBJEXT) \
	../include/parallelization/libSU2_a-mpi_structure.$(OBJEXT) \
	../include/parallelization/libSU2_a-omp_structure.$(OBJEXT) \
	../src/basic_types/libSU2_a-ad_structure.$(OBJEXT) \
	../src/fem/libSU2_a-fem_gauss_jacobi_quadrature.$(OBJEXT) \
	../src/geometry/libSU2_a-CGeometry.$(OBJEXT) \
	../src/geometry/libSU2_a-CPhysicalGeometry.$(OBJEXT) \
	../src/geometry/libSU2_a-CMultiGridGeometry.$(OBJEXT) \
	../src/geometry/libSU2_a-CMultiGridQueue.$(OBJEXT) \
	../src/geometry/libSU2_a-CDummyGeometry.$(OBJEXT) \
	../src/geometry/elements/libSU2_a-CElement.$(OBJEXT) \
	../src/geometry/elements/libSU2_a-CTRIA1.$(OBJEXT) \
	../src/geometry/elements/libSU2_a-CQUAD4.$(OBJEXT) \
	../src/geometry/elements/libSU2_a-CTETRA1.$(OBJEXT) \
	../src/geometry/elements/libSU2_a-CPYRAM5.$(OBJEXT) \
	../src/geometry/elements/libSU2_a-CPRISM6.$(OBJEXT) \
	../src/geometry/elements/libSU2_a-CHEXA8.$(OBJEXT) \
	../src/geometry/meshreader/libSU2_a-CMeshReaderFVM.$(OBJEXT) \
	../src/geometry/meshreader/libSU2_a-CSU2ASCIIMeshReaderFVM.$(OBJEXT) \
	../src/geometry/meshreader/libSU2_a-CCGNSMeshReaderFVM.$(OBJEXT) \
	../src/geometry/meshreader/libSU2_a-CRectangularMeshReaderFVM.$(OBJEXT) \
	../src/geometry/meshreader/libSU2_a-CBoxMeshReaderFVM.$(OBJEXT) \
	../src/geometry/dual_grid/libSU2_a-CDualGrid.$(OBJEXT) \
	../src/geometry/dual_grid/libSU2_a-CEdge.$(OBJEXT) \
	../src/geometry/dual_grid/libSU2_a-CPoint.$(OBJEXT) \
	../src/geometry/dual_grid/libSU2_a-CVertex.$(OBJEXT) \
	../src/geometry/dual_grid/libSU2_a-CTurboVertex.$(OBJEXT) \
	../src/geometry/primal_grid/libSU2_a-CPrimalGrid.$(OBJEXT) \
	../src/geometry/primal_grid/libSU2_a-CPrimalGridFEM.$(OBJEXT) \
	../src/geometry/primal_grid/libSU2_a-CPrimalGridBoundFEM.$(OBJEXT) \
	../src/geometry/primal_grid/libSU2_a-CLine.$(OBJEXT) \
	../src/geometry/primal_grid/libSU2_a-CTriangle.$(OBJEXT) \
	../src/geometry/primal_grid/libSU2_a-CPrism.$(OBJEXT) \
	../src/geometry/primal_grid/libSU2_a-CPyramid.$(OBJEXT) \
	../src/geometry/primal_grid/libSU2_a-CHexahedron.$(OBJEXT) \
	../src/geometry/primal_grid/libSU2_a-CTetrahedron.$(OBJEXT) \
	../src/geometry/primal_grid/libSU2_a-CQuadrilateral.$(OBJEXT) \
	../src/geometry/primal_grid/libSU2_a-CVertexMPI.$(OBJEXT) \
	../src/interface_interpolation/libSU2_a-CInterpolatorFactory.$(OBJEXT) \
	../src/interface_interpolation/libSU2_a-CInterpolator.$(OBJEXT) \
	../src/interface_interpolation/libSU2_a-CMirror.$(OBJEXT) \
	../src/interface_interpolation/libSU2_a-CSlidingMesh.$(OBJEXT) \
	../src/interface_interpolation/libSU2_a-CIsoparametric.$(OBJEXT) \
	../src/interface_interpolation/libSU2_a-CNearestNeighbor.$(OBJEXT) \
	../src/interface_interpolation/libSU2_a-CRadialBasisFunction.$(OBJEXT) \
	../src/adt/libSU2_a-CADTBaseClass.$(OBJEXT) \
	../src/adt/libSU2_a-CADTPointsOnlyClass.$(OBJEXT) \
	../src/adt/libSU2_a-CADTElemClass.$(OBJEXT) \
	../src/libSU2_a-wall_model.$(OBJEXT) \
	../src/toolboxes/libSU2_a-printing_toolbox.$(OBJEXT) \
	../src/toolboxes/libSU2_a-CLinearPartitioner.$(OBJEXT) \
	../src/toolboxes/libSU2_a-C1DInterpolation.$(OBJEXT) \
	../src/toolboxes/libSU2_a-CSymmetricMatrix.$(OBJEXT) \
	../src/toolboxes/libSU2_a-CSquareMatrixCM.$(OBJEXT) \
	../src/toolboxes/MMS/libSU2_a-CVerificationSolution.$(OBJEXT) \
	../src/toolboxes/MMS/libSU2_a-CIncTGVSolution.$(OBJEXT) \
	../src/toolboxes/MMS/libSU2_a-CInviscidVortexSolution.$(OBJEXT) \
	../src/toolboxes/MMS/libSU2_a-CMMSIncEulerSolution.$(OBJEXT) \
	../src/toolboxes/MMS/libSU2_a-CMMSIncNSSolution.$(OBJEXT) \
	../src/toolboxes/MMS/libSU2_a-CMMSNSTwoHalfCirclesSolution.$(OBJEXT) \
	../src/toolboxes/MMS/libSU2_a-CMMSNSTwoHalfSpheresSolution.$(OBJEXT) \
	../src/toolboxes/MMS/libSU2_a-CMMSNSUnitQuadSolution.$(OBJEXT) \
	../src/toolboxes/MMS/libSU2_a-CMMSNSUnitQuadSolutionWallBC.$(OBJEXT) \
	../src/toolboxes/MMS/libSU2_a-CNSUnitQuadSolution.$(OBJEXT) \
	../src/toolboxes/MMS/libSU2_a-CRinglebSolution.$(OBJEXT) \
	../src/toolboxes/MMS/libSU2_a-CTGVSolution.$(OBJEXT) \
	../src/toolboxes/MMS/libSU2_a-CUserDefinedSolution.$(OBJEXT) \
	../src/linear_algebra/libSU2_a-CSysVector.$(OBJEXT) \
	../src/linear_algebra/libSU2_a-CSysMatrix.$(OBJEXT) \
	../src/linear_algebra/libSU2_a-CSysSolve.$(OBJEXT) \
	../src/linear_algebra/libSU2_a-CSysSolve_b.$(OBJEXT) \
	../src/linear_algebra/libSU2_a-CPastixWrapper.$(OBJEXT)
@BUILD_NORMAL_TRUE@am_libSU2_a_OBJECTS = $(am__objects_1)
libSU2_a_OBJECTS = $(am_libSU2_a_OBJECTS)
libSU2_AD_a_AR = $(AR) $(ARFLAGS)
@BUILD_REVERSE_TRUE@libSU2_AD_a_DEPENDENCIES = $(am__DEPENDENCIES_1)
am__libSU2_AD_a_SOURCES_DIST = ../src/fem/fem_cgns_elements.cpp \
	../src/CConfig.cpp ../src/linear_algebra/blas_structure.cpp \
	../src/fem/fem_geometry_structure.cpp \
	../src/fem/fem_integration_rules.cpp \
	../src/fem/fem_standard_element.cpp \
	../src/fem/fem_wall_distance.cpp \
	../src/fem/fem_work_estimate_metis.cpp \
	../src/fem/geometry_structure_fem_part.cpp \
	../src/graph_coloring_structure.cpp \
	../src/grid_movement/CGridMovement.cpp \
	../src/grid_movement/CFreeFormBlending.cpp \
	../src/grid_movement/CBSplineBlending.cpp \
	../src/grid_movement/CBezierBlending.cpp \
	../src/grid_movement/CFreeFormDefBox.cpp \
	../src/grid_movement/CVolumetricMovement.cpp \
	../src/grid_movement/CSurfaceMovement.cpp \
	../include/parallelization/mpi_structure.cpp \
	../include/parallelization/omp_structure.cpp \
	../src/basic_types/ad_structure.cpp \
	../src/fem/fem_gauss_jacobi_quadrature.cpp \
	../src/geometry/CGeometry.cpp \
	../src/geometry/CPhysicalGeometry.cpp \
	../src/geometry/CMultiGridGeometry.cpp \
	../src/geometry/CMultiGridQueue.cpp \
	../src/geometry/CDummyGeometry.cpp \
	../src/geometry/elements/CElement.cpp \
	../src/geometry/elements/CTRIA1.cpp \
	../src/geometry/elements/CQUAD4.cpp \
	../src/geometry/elements/CTETRA1.cpp \
	../src/geometry/elements/CPYRAM5.cpp \
	../src/geometry/elements/CPRISM6.cpp \
	../src/geometry/elements/CHEXA8.cpp \
	../src/geometry/meshreader/CMeshReaderFVM.cpp \
	../src/geometry/meshreader/CSU2ASCIIMeshReaderFVM.cpp \
	../src/geometry/meshreader/CCGNSMeshReaderFVM.cpp \
	../src/geometry/meshreader/CRectangularMeshReaderFVM.cpp \
	../src/geometry/meshreader/CBoxMeshReaderFVM.cpp \
	../src/geometry/dual_grid/CDualGrid.cpp \
	../src/geometry/dual_grid/CEdge.cpp \
	../src/geometry/dual_grid/CPoint.cpp \
	../src/geometry/dual_grid/CVertex.cpp \
	../src/geometry/dual_grid/CTurboVertex.cpp \
	../src/geometry/primal_grid/CPrimalGrid.cpp \
	../src/geometry/primal_grid/CPrimalGridFEM.cpp \
	../src/geometry/primal_grid/CPrimalGridBoundFEM.cpp \
	../src/geometry/primal_grid/CLine.cpp \
	../src/geometry/primal_grid/CTriangle.cpp \
	../src/geometry/primal_grid/CPrism.cpp \
	../src/geometry/primal_grid/CPyramid.cpp \
	../src/geometry/primal_grid/CHexahedron.cpp \
	../src/geometry/primal_grid/CTetrahedron.cpp \
	../src/geometry/primal_grid/CQuadrilateral.cpp \
	../src/geometry/primal_grid/CVertexMPI.cpp \
	../src/interface_interpolation/CInterpolatorFactory.cpp \
	../src/interface_interpolation/CInterpolator.cpp \
	../src/interface_interpolation/CMirror.cpp \
	../src/interface_interpolation/CSlidingMesh.cpp \
	../src/interface_interpolation/CIsoparametric.cpp \
	../src/interface_interpolation/CNearestNeighbor.cpp \
	../src/interface_interpolation/CRadialBasisFunction.cpp \
	../src/adt/CADTBaseClass.cpp \
	../src/adt/CADTPointsOnlyClass.cpp \
	../src/adt/CADTElemClass.cpp ../src/wall_model.cpp \
	../src/toolboxes/printing_toolbox.cpp \
	../src/toolboxes/CLinearPartitioner.cpp \
	../src/toolboxes/C1DInterpolation.cpp \
	../src/toolboxes/CSymmetricMatrix.cpp \
	../src/toolboxes/CSquareMatrixCM.cpp \
	../src/toolboxes/MMS/CVerificationSolution.cpp \
	../src/toolboxes/MMS/CIncTGVSolution.cpp \
	../src/toolboxes/MMS/CInviscidVortexSolution.cpp \
	../src/toolboxes/MMS/CMMSIncEulerSolution.cpp \
	../src/toolboxes/MMS/CMMSIncNSSolution.cpp \
	../src/toolboxes/MMS/CMMSNSTwoHalfCirclesSolution.cpp \
	../src/toolboxes/MMS/CMMSNSTwoHalfSpheresSolution.cpp \
	../src/toolboxes/MMS/CMMSNSUnitQuadSolution.cpp \
	../src/toolboxes/MMS/CMMSNSUnitQuadSolutionWallBC.cpp \
	../src/toolboxes/MMS/CNSUnitQuadSolution.cpp \
	../src/toolboxes/MMS/CRinglebSolution.cpp \
	../src/toolboxes/MMS/CTGVSolution.cpp \
	../src/toolboxes/MMS/CUserDefinedSolution.cpp \
	../src/linear_algebra/CSysVector.cpp \
	../src/linear_algebra/CSysMatrix.cpp \
	../src/linear_algebra/CSysSolve.cpp \
	../src/linear_algebra/CSysSolve_b.cpp \
	../src/linear_algebra/CPastixWrapper.cpp
am__objects_2 = ../src/fem/libSU2_AD_a-fem_cgns_elements.$(OBJEXT) \
	../src/libSU2_AD_a-CConfig.$(OBJEXT) \
	../src/linear_algebra/libSU2_AD_a-blas_structure.$(OBJEXT) \
	../src/fem/libSU2_AD_a-fem_geometry_structure.$(OBJEXT) \
	../src/fem/libSU2_AD_a-fem_integration_rules.$(OBJEXT) \
	../src/fem/libSU2_AD_a-fem_standard_element.$(OBJEXT) \
	../src/fem/libSU2_AD_a-fem_wall_distance.$(OBJEXT) \
	../src/fem/libSU2_AD_a-fem_work_estimate_metis.$(OBJEXT) \
	../src/fem/libSU2_AD_a-geometry_structure_fem_part.$(OBJEXT) \
	../src/libSU2_AD_a-graph_coloring_structure.$(OBJEXT) \
	../src/grid_movement/libSU2_AD_a-CGridMovement.$(OBJEXT) \
	../src/grid_movement/libSU2_AD_a-CFreeFormBlending.$(OBJEXT) \
	../src/grid_movement/libSU2_AD_a-CBSplineBlending.$(OBJEXT) \
	../src/grid_movement/libSU2_AD_a-CBezierBlending.$(OBJEXT) \
	../src/grid_movement/libSU2_AD_a-CFreeFormDefBox.$(OBJEXT) \
	../src/grid_movement/libSU2_AD_a-CVolumetricMovement.$(OBJEXT) \
	../src/grid_movement/libSU2_AD_a-CSurfaceMovement.$(OBJEXT) \
	../include/parallelization/libSU2_AD_a-mpi_structure.$(OBJEXT) \
	../include/parallelization/libSU2_AD_a-omp_structure.$(OBJEXT) \
	../src/basic_types/libSU2_AD_a-ad_structure.$(OBJEXT) \
	../src/fem/libSU2_AD_a-fem_gauss_jacobi_quadrature.$(OBJEXT) \
	../src/geometry/libSU2_AD_a-CGeometry.$(OBJEXT) \
	../src/geometry/libSU2_AD_a-CPhysicalGeometry.$(OBJEXT) \
	../src/geometry/libSU2_AD_a-CMultiGridGeometry.$(OBJEXT) \
	../src/geometry/libSU2_AD_a-CMultiGridQueue.$(OBJEXT) \
	../src/geometry/libSU2_AD_a-CDummyGeometry.$(OBJEXT) \
	../src/geometry/elements/libSU2_AD_a-CElement.$(OBJEXT) \
	../src/geometry/elements/libSU2_AD_a-CTRIA1.$(OBJEXT) \
	../src/geometry/elements/libSU2_AD_a-CQUAD4.$(OBJEXT) \
	../src/geometry/elements/libSU2_AD_a-CTETRA1.$(OBJEXT) \
	../src/geometry/elements/libSU2_AD_a-CPYRAM5.$(OBJEXT) \
	../src/geometry/elements/libSU2_AD_a-CPRISM6.$(OBJEXT) \
	../src/geometry/elements/libSU2_AD_a-CHEXA8.$(OBJEXT) \
	../src/geometry/meshreader/libSU2_AD_a-CMeshReaderFVM.$(OBJEXT) \
	../src/geometry/meshreader/libSU2_AD_a-CSU2ASCIIMeshReaderFVM.$(OBJEXT) \
	../src/geometry/meshreader/libSU2_AD_a-CCGNSMeshReaderFVM.$(OBJEXT) \
	../src/geometry/meshreader/libSU2_AD_a-CRectangularMeshReaderFVM.$(OBJEXT) \
	../src/geometry/meshreader/libSU2_AD_a-CBoxMeshReaderFVM.$(OBJEXT) \
	../src/geometry/dual_grid/libSU2_AD_a-CDualGrid.$(OBJEXT) \
	../src/geometry/dual_grid/libSU2_AD_a-CEdge.$(OBJEXT) \
	../src/geometry/dual_grid/libSU2_AD_a-CPoint.$(OBJEXT) \
	../src/geometry/dual_grid/libSU2_AD_a-CVertex.$(OBJEXT) \
	../src/geometry/dual_grid/libSU2_AD_a-CTurboVertex.$(OBJEXT) \
	../src/geometry/primal_grid/libSU2_AD_a-CPrimalGrid.$(OBJEXT) \
	../src/geometry/primal_grid/libSU2_AD_a-CPrimalGridFEM.$(OBJEXT) \
	../src/geometry/primal_grid/libSU2_AD_a-CPrimalGridBoundFEM.$(OBJEXT) \
	../src/geometry/primal_grid/libSU2_AD_a-CLine.$(OBJEXT) \
	../src/geometry/primal_grid/libSU2_AD_a-CTriangle.$(OBJEXT) \
	../src/geometry/primal_grid/libSU2_AD_a-CPrism.$(OBJEXT) \
	../src/geometry/primal_grid/libSU2_AD_a-CPyramid.$(OBJEXT) \
	../src/geometry/primal_grid/libSU2_AD_a-CHexahedron.$(OBJEXT) \
	../src/geometry/primal_grid/libSU2_AD_a-CTetrahedron.$(OBJEXT) \
	../src/geometry/primal_grid/libSU2_AD_a-CQuadrilateral.$(OBJEXT) \
	../src/geometry/primal_grid/libSU2_AD_a-CVertexMPI.$(OBJEXT) \
	../src/interface_interpolation/libSU2_AD_a-CInterpolatorFactory.$(OBJEXT) \
	../src/interface_interpolation/libSU2_AD_a-CInterpolator.$(OBJEXT) \
	../src/interface_interpolation/libSU2_AD_a-CMirror.$(OBJEXT) \
	../src/interface_interpolation/libSU2_AD_a-CSlidingMesh.$(OBJEXT) \
	../src/interface_interpolation/libSU2_AD_a-CIsoparametric.$(OBJEXT) \
	../src/interface_interpolation/libSU2_AD_a-CNearestNeighbor.$(OBJEXT) \
	../src/interface_interpolation/libSU2_AD_a-CRadialBasisFunction.$(OBJEXT) \
	../src/adt/libSU2_AD_a-CADTBaseClass.$(OBJEXT) \
	../src/adt/libSU2_AD_a-CADTPointsOnlyClass.$(OBJEXT) \
	../src/adt/libSU2_AD_a-CADTElemClass.$(OBJEXT) \
	../src/libSU2_AD_a-wall_model.$(OBJEXT) \
	../src/toolboxes/libSU2_AD_a-printing_toolbox.$(OBJEXT) \
	../src/toolboxes/libSU2_AD_a-CLinearPartitioner.$(OBJEXT) \
	../src/toolboxes/libSU2_AD_a-C1DInterpolation.$(OBJEXT) \
	../src/toolboxes/libSU2_AD_a-CSymmetricMatrix.$(OBJEXT) \
	../src/toolboxes/libSU2_AD_a-CSquareMatrixCM.$(OBJEXT) \
	../src/toolboxes/MMS/libSU2_AD_a-CVerificationSolution.$(OBJEXT) \
	../src/toolboxes/MMS/libSU2_AD_a-CIncTGVSolution.$(OBJEXT) \
	../src/toolboxes/MMS/libSU2_AD_a-CInviscidVortexSolution.$(OBJEXT) \
	../src/toolboxes/MMS/libSU2_AD_a-CMMSIncEulerSolution.$(OBJEXT) \
	../src/toolboxes/MMS/libSU2_AD_a-CMMSIncNSSolution.$(OBJEXT) \
	../src/toolboxes/MMS/libSU2_AD_a-CMMSNSTwoHalfCirclesSolution.$(OBJEXT) \
	../src/toolboxes/MMS/libSU2_AD_a-CMMSNSTwoHalfSpheresSolution.$(OBJEXT) \
	../src/toolboxes/MMS/libSU2_AD_a-CMMSNSUnitQuadSolution.$(OBJEXT) \
	../src/toolboxes/MMS/libSU2_AD_a-CMMSNSUnitQuadSolutionWallBC.$(OBJEXT) \
	../src/toolboxes/MMS/libSU2_AD_a-CNSUnitQuadSolution.$(OBJEXT) \
	../src/toolboxes/MMS/libSU2_AD_a-CRinglebSolution.$(OBJEXT) \
	../src/toolboxes/MMS/libSU2_AD_a-CTGVSolution.$(OBJEXT) \
	../src/toolboxes/MMS/libSU2_AD_a-CUserDefinedSolution.$(OBJEXT) \
	../src/linear_algebra/libSU2_AD_a-CSysVector.$(OBJEXT) \
	../src/linear_algebra/libSU2_AD_a-CSysMatrix.$(OBJEXT) \
	../src/linear_algebra/libSU2_AD_a-CSysSolve.$(OBJEXT) \
	../src/linear_algebra/libSU2_AD_a-CSysSolve_b.$(OBJEXT) \
	../src/linear_algebra/libSU2_AD_a-CPastixWrapper.$(OBJEXT)
@BUILD_REVERSE_TRUE@am_libSU2_AD_a_OBJECTS = $(am__objects_2)
libSU2_AD_a_OBJECTS = $(am_libSU2_AD_a_OBJECTS)
libSU2_DIRECTDIFF_a_AR = $(AR) $(ARFLAGS)
@BUILD_DIRECTDIFF_TRUE@libSU2_DIRECTDIFF_a_DEPENDENCIES =  \
@BUILD_DIRECTDIFF_TRUE@	$(am__DEPENDENCIES_1)
am__libSU2_DIRECTDIFF_a_SOURCES_DIST =  \
	../src/fem/fem_cgns_elements.cpp ../src/CConfig.cpp \
	../src/linear_algebra/blas_structure.cpp \
	../src/fem/fem_geometry_structure.cpp \
	../src/fem/fem_integration_rules.cpp \
	../src/fem/fem_standard_element.cpp \
	../src/fem/fem_wall_distance.cpp \
	../src/fem/fem_work_estimate_metis.cpp \
	../src/fem/geometry_structure_fem_part.cpp \
	../src/graph_coloring_structure.cpp \
	../src/grid_movement/CGridMovement.cpp \
	../src/grid_movement/CFreeFormBlending.cpp \
	../src/grid_movement/CBSplineBlending.cpp \
	../src/grid_movement/CBezierBlending.cpp \
	../src/grid_movement/CFreeFormDefBox.cpp \
	../src/grid_movement/CVolumetricMovement.cpp \
	../src/grid_movement/CSurfaceMovement.cpp \
	../include/parallelization/mpi_structure.cpp \
	../include/parallelization/omp_structure.cpp \
	../src/basic_types/ad_structure.cpp \
	../src/fem/fem_gauss_jacobi_quadrature.cpp \
	../src/geometry/CGeometry.cpp \
	../src/geometry/CPhysicalGeometry.cpp \
	../src/geometry/CMultiGridGeometry.cpp \
	../src/geometry/CMultiGridQueue.cpp \
	../src/geometry/CDummyGeometry.cpp \
	../src/geometry/elements/CElement.cpp \
	../src/geometry/elements/CTRIA1.cpp \
	../src/geometry/elements/CQUAD4.cpp \
	../src/geometry/elements/CTETRA1.cpp \
	../src/geometry/elements/CPYRAM5.cpp \
	../src/geometry/elements/CPRISM6.cpp \
	../src/geometry/elements/CHEXA8.cpp \
	../src/geometry/meshreader/CMeshReaderFVM.cpp \
	../src/geometry/meshreader/CSU2ASCIIMeshReaderFVM.cpp \
	../src/geometry/meshreader/CCGNSMeshReaderFVM.cpp \
	../src/geometry/meshreader/CRectangularMeshReaderFVM.cpp \
	../src/geometry/meshreader/CBoxMeshReaderFVM.cpp \
	../src/geometry/dual_grid/CDualGrid.cpp \
	../src/geometry/dual_grid/CEdge.cpp \
	../src/geometry/dual_grid/CPoint.cpp \
	../src/geometry/dual_grid/CVertex.cpp \
	../src/geometry/dual_grid/CTurboVertex.cpp \
	../src/geometry/primal_grid/CPrimalGrid.cpp \
	../src/geometry/primal_grid/CPrimalGridFEM.cpp \
	../src/geometry/primal_grid/CPrimalGridBoundFEM.cpp \
	../src/geometry/primal_grid/CLine.cpp \
	../src/geometry/primal_grid/CTriangle.cpp \
	../src/geometry/primal_grid/CPrism.cpp \
	../src/geometry/primal_grid/CPyramid.cpp \
	../src/geometry/primal_grid/CHexahedron.cpp \
	../src/geometry/primal_grid/CTetrahedron.cpp \
	../src/geometry/primal_grid/CQuadrilateral.cpp \
	../src/geometry/primal_grid/CVertexMPI.cpp \
	../src/interface_interpolation/CInterpolatorFactory.cpp \
	../src/interface_interpolation/CInterpolator.cpp \
	../src/interface_interpolation/CMirror.cpp \
	../src/interface_interpolation/CSlidingMesh.cpp \
	../src/interface_interpolation/CIsoparametric.cpp \
	../src/interface_interpolation/CNearestNeighbor.cpp \
	../src/interface_interpolation/CRadialBasisFunction.cpp \
	../src/adt/CADTBaseClass.cpp \
	../src/adt/CADTPointsOnlyClass.cpp \
	../src/adt/CADTElemClass.cpp ../src/wall_model.cpp \
	../src/toolboxes/printing_toolbox.cpp \
	../src/toolboxes/CLinearPartitioner.cpp \
	../src/toolboxes/C1DInterpolation.cpp \
	../src/toolboxes/CSymmetricMatrix.cpp \
	../src/toolboxes/CSquareMatrixCM.cpp \
	../src/toolboxes/MMS/CVerificationSolution.cpp \
	../src/toolboxes/MMS/CIncTGVSolution.cpp \
	../src/toolboxes/MMS/CInviscidVortexSolution.cpp \
	../src/toolboxes/MMS/CMMSIncEulerSolution.cpp \
	../src/toolboxes/MMS/CMMSIncNSSolution.cpp \
	../src/toolboxes/MMS/CMMSNSTwoHalfCirclesSolution.cpp \
	../src/toolboxes/MMS/CMMSNSTwoHalfSpheresSolution.cpp \
	../src/toolboxes/MMS/CMMSNSUnitQuadSolution.cpp \
	../src/toolboxes/MMS/CMMSNSUnitQuadSolutionWallBC.cpp \
	../src/toolboxes/MMS/CNSUnitQuadSolution.cpp \
	../src/toolboxes/MMS/CRinglebSolution.cpp \
	../src/toolboxes/MMS/CTGVSolution.cpp \
	../src/toolboxes/MMS/CUserDefinedSolution.cpp \
	../src/linear_algebra/CSysVector.cpp \
	../src/linear_algebra/CSysMatrix.cpp \
	../src/linear_algebra/CSysSolve.cpp \
	../src/linear_algebra/CSysSolve_b.cpp \
	../src/linear_algebra/CPastixWrapper.cpp
am__objects_3 =  \
	../src/fem/libSU2_DIRECTDIFF_a-fem_cgns_elements.$(OBJEXT) \
	../src/libSU2_DIRECTDIFF_a-CConfig.$(OBJEXT) \
	../src/linear_algebra/libSU2_DIRECTDIFF_a-blas_structure.$(OBJEXT) \
	../src/fem/libSU2_DIRECTDIFF_a-fem_geometry_structure.$(OBJEXT) \
	../src/fem/libSU2_DIRECTDIFF_a-fem_integration_rules.$(OBJEXT) \
	../src/fem/libSU2_DIRECTDIFF_a-fem_standard_element.$(OBJEXT) \
	../src/fem/libSU2_DIRECTDIFF_a-fem_wall_distance.$(OBJEXT) \
	../src/fem/libSU2_DIRECTDIFF_a-fem_work_estimate_metis.$(OBJEXT) \
	../src/fem/libSU2_DIRECTDIFF_a-geometry_structure_fem_part.$(OBJEXT) \
	../src/libSU2_DIRECTDIFF_a-graph_coloring_structure.$(OBJEXT) \
	../src/grid_movement/libSU2_DIRECTDIFF_a-CGridMovement.$(OBJEXT) \
	../src/grid_movement/libSU2_DIRECTDIFF_a-CFreeFormBlending.$(OBJEXT) \
	../src/grid_movement/libSU2_DIRECTDIFF_a-CBSplineBlending.$(OBJEXT) \
	../src/grid_movement/libSU2_DIRECTDIFF_a-CBezierBlending.$(OBJEXT) \
	../src/grid_movement/libSU2_DIRECTDIFF_a-CFreeFormDefBox.$(OBJEXT) \
	../src/grid_movement/libSU2_DIRECTDIFF_a-CVolumetricMovement.$(OBJEXT) \
	../src/grid_movement/libSU2_DIRECTDIFF_a-CSurfaceMovement.$(OBJEXT) \
	../include/parallelization/libSU2_DIRECTDIFF_a-mpi_structure.$(OBJEXT) \
	../include/parallelization/libSU2_DIRECTDIFF_a-omp_structure.$(OBJEXT) \
	../src/basic_types/libSU2_DIRECTDIFF_a-ad_structure.$(OBJEXT) \
	../src/fem/libSU2_DIRECTDIFF_a-fem_gauss_jacobi_quadrature.$(OBJEXT) \
	../src/geometry/libSU2_DIRECTDIFF_a-CGeometry.$(OBJEXT) \
	../src/geometry/libSU2_DIRECTDIFF_a-CPhysicalGeometry.$(OBJEXT) \
	../src/geometry/libSU2_DIRECTDIFF_a-CMultiGridGeometry.$(OBJEXT) \
	../src/geometry/libSU2_DIRECTDIFF_a-CMultiGridQueue.$(OBJEXT) \
	../src/geometry/libSU2_DIRECTDIFF_a-CDummyGeometry.$(OBJEXT) \
	../src/geometry/elements/libSU2_DIRECTDIFF_a-CElement.$(OBJEXT) \
	../src/geometry/elements/libSU2_DIRECTDIFF_a-CTRIA1.$(OBJEXT) \
	../src/geometry/elements/libSU2_DIRECTDIFF_a-CQUAD4.$(OBJEXT) \
	../src/geometry/elements/libSU2_DIRECTDIFF_a-CTETRA1.$(OBJEXT) \
	../src/geometry/elements/libSU2_DIRECTDIFF_a-CPYRAM5.$(OBJEXT) \